<?xml version="1.0" encoding="UTF-8"?>

<!-- generated on 2022-11-28 17:30:48 by Eclipse SUMO netedit Version 1.14.1
-->

<routes xmlns:xsi="http://www.w3.org/2001/XMLSchema-instance" xsi:noNamespaceSchemaLocation="http://sumo.dlr.de/xsd/routes_file.xsd">
    <!-- Vehicles, persons and containers (sorted by depart) -->
    <!-- low vehicle traffic -->
    <vType id="passanger_cars1" jmDriveAfterYellowTime="2"/>
    <flow id="f_1"   begin="0.00" from="S1" to="N2" end="21600" departLane="best" departSpeed="speedLimit" period="exp(0.033)"/>
    <flow id="f_1A"  begin="0.00" from="S1" to="N2" end="21600" departLane="best" departSpeed="speedLimit" period="exp(0.033)"/>
    <flow id="f_2"   begin="0.00" from="S1" to="E2" end="21600" departLane="best" departSpeed="speedLimit" period="exp(0.024)"/>
    <flow id="f_3"   begin="0.00" from="S1" to="W2" end="21600" departLane="best" departSpeed="speedLimit" period="exp(0.024)"/>
    <flow id="f_4"   begin="0.00" from="E1" to="W2" end="21600" departLane="best" departSpeed="speedLimit" period="exp(0.033)"/>
    <flow id="f_4A"  begin="0.00" from="E1" to="W2" end="21600" departLane="best" departSpeed="speedLimit" period="exp(0.033)"/>
    <flow id="f_5"   begin="0.00" from="E1" to="N2" end="21600" departLane="best" departSpeed="speedLimit" period="exp(0.024)"/>
    <flow id="f_6"   begin="0.00" from="E1" to="S2" end="21600" departLane="best" departSpeed="speedLimit" period="exp(0.024)"/>
    <flow id="f_7"   begin="0.00" from="N1" to="S2" end="21600" departLane="best" departSpeed="speedLimit" period="exp(0.033)"/>
    <flow id="f_7A"  begin="0.00" from="N1" to="S2" end="21600" departLane="best" departSpeed="speedLimit" period="exp(0.033)"/>
    <flow id="f_8"   begin="0.00" from="N1" to="W2" end="21600" departLane="best" departSpeed="speedLimit" period="exp(0.024)"/>
    <flow id="f_9"   begin="0.00" from="N1" to="E2" end="21600" departLane="best" departSpeed="speedLimit" period="exp(0.024)"/>
    <flow id="f_10"  begin="0.00" from="W1" to="E2" end="21600" departLane="best" departSpeed="speedLimit" period="exp(0.033)"/>
    <flow id="f_10A" begin="0.00" from="W1" to="E2" end="21600" departLane="best" departSpeed="speedLimit" period="exp(0.033)"/>
    <flow id="f_11"  begin="0.00" from="W1" to="S2" end="21600" departLane="best" departSpeed="speedLimit" period="exp(0.024)"/>
    <flow id="f_12"  begin="0.00" from="W1" to="N2" end="21600" departLane="best" departSpeed="speedLimit" period="exp(0.024)"/>
    
    <!-- low pedestrian traffic -->
    <personFlow id="f_1" begin="0.00" end="18000" period="exp(0.012)">
        <personTrip from="S1" to="N2"/>
    </personFlow>
    <personFlow id="f_2" begin="0.00" end="18000" period="exp(0.012)">
        <personTrip from="S1" to="E2"/>
    </personFlow>
    <personFlow id="f_3" begin="0.00" end="18000" period="exp(0.012)">
        <personTrip from="S1" to="W2"/>
    </personFlow>
    <personFlow id="f_4" begin="0.00" end="18000" period="exp(0.012)">
        <personTrip from="E1" to="W2"/>
    </personFlow>
    <personFlow id="f_5" begin="0.00" end="18000" period="exp(0.012)">
        <personTrip from="E1" to="N2"/>
    </personFlow>
    <personFlow id="f_6" begin="0.00" end="18000" period="exp(0.012)">
        <personTrip from="E1" to="S2"/>
    </personFlow>
    <personFlow id="f_7" begin="0.00" end="18000" period="exp(0.012)">
        <personTrip from="N1" to="S2"/>
    </personFlow>
    <personFlow id="f_8" begin="0.00" end="18000" period="exp(0.012)">
        <personTrip from="N1" to="W2"/>
    </personFlow>
    <personFlow id="f_9" begin="0.00" end="18000" period="exp(0.012)">
        <personTrip from="N1" to="E2"/>
    </personFlow>
    <personFlow id="f_10" begin="0.00" end="18000" period="exp(0.012)">
        <personTrip from="W1" to="E2"/>
    </personFlow>
    <personFlow id="f_11" begin="0.00" end="18000" period="exp(0.012)">
        <personTrip from="W1" to="S2"/>
    </personFlow>
    <personFlow id="f_12" begin="0.00" end="18000" period="exp(0.012)">
        <personTrip from="W1" to="N2"/>
    </personFlow>


    <!-- medium pedestrian traffic -->
    <personFlow id="f_13" begin="18001" end="21600" period="exp(0.024)">
        <personTrip from="S1" to="N2"/>
    </personFlow>
    <personFlow id="f_14" begin="18001" end="21600" period="exp(0.024)">
        <personTrip from="S1" to="E2"/>
    </personFlow>
    <personFlow id="f_15" begin="18001" end="21600" period="exp(0.024)">
        <personTrip from="S1" to="W2"/>
    </personFlow>
    <personFlow id="f_16" begin="18001" end="21600" period="exp(0.024)">
        <personTrip from="E1" to="W2"/>
    </personFlow>
    <personFlow id="f_17" begin="18001" end="21600" period="exp(0.024)">
        <personTrip from="E1" to="N2"/>
    </personFlow>
    <personFlow id="f_18" begin="18001" end="21600" period="exp(0.024)">
        <personTrip from="E1" to="S2"/>
    </personFlow>
    <personFlow id="f_19" begin="18001" end="21600" period="exp(0.024)">
        <personTrip from="N1" to="S2"/>
    </personFlow>
    <personFlow id="f_20" begin="18001" end="21600" period="exp(0.024)">
        <personTrip from="N1" to="W2"/>
    </personFlow>
    <personFlow id="f_21" begin="18001" end="21600" period="exp(0.024)">
        <personTrip from="N1" to="E2"/>
    </personFlow>
    <personFlow id="f_22" begin="18001" end="21600" period="exp(0.024)">
        <personTrip from="W1" to="E2"/>
    </personFlow>
    <personFlow id="f_23" begin="18001" end="21600" period="exp(0.024)">
        <personTrip from="W1" to="S2"/>
    </personFlow>
    <personFlow id="f_24" begin="18001" end="21600" period="exp(0.024)">
        <personTrip from="W1" to="N2"/>
    </personFlow>

    <!-- medium vehicle traffic -->
    <vType id="passanger_cars2" jmDriveAfterYellowTime="2"/>
    <flow id="f_13"  begin="21601" from="S1" to="N2" end="27000" departLane="best" departSpeed="speedLimit" period="exp(0.057)"/>
    <flow id="f_13A" begin="21601" from="S1" to="N2" end="27000" departLane="best" departSpeed="speedLimit" period="exp(0.057)"/>
    <flow id="f_14"  begin="21601" from="S1" to="E2" end="27000" departLane="best" departSpeed="speedLimit" period="exp(0.042)"/>
    <flow id="f_15"  begin="21601" from="S1" to="W2" end="27000" departLane="best" departSpeed="speedLimit" period="exp(0.042)"/>
    <flow id="f_16"  begin="21601" from="E1" to="W2" end="27000" departLane="best" departSpeed="speedLimit" period="exp(0.057)"/>
    <flow id="f_16A" begin="21601" from="E1" to="W2" end="27000" departLane="best" departSpeed="speedLimit" period="exp(0.057)"/>
    <flow id="f_17"  begin="21601" from="E1" to="N2" end="27000" departLane="best" departSpeed="speedLimit" period="exp(0.042)"/>
    <flow id="f_18"  begin="21601" from="E1" to="S2" end="27000" departLane="best" departSpeed="speedLimit" period="exp(0.042)"/>
    <flow id="f_19"  begin="21601" from="N1" to="S2" end="27000" departLane="best" departSpeed="speedLimit" period="exp(0.057)"/>
    <flow id="f_19A" begin="21601" from="N1" to="S2" end="27000" departLane="best" departSpeed="speedLimit" period="exp(0.057)"/>
    <flow id="f_20"  begin="21601" from="N1" to="W2" end="27000" departLane="best" departSpeed="speedLimit" period="exp(0.042)"/>
    <flow id="f_21"  begin="21601" from="N1" to="E2" end="27000" departLane="best" departSpeed="speedLimit" period="exp(0.042)"/>
    <flow id="f_22"  begin="21601" from="W1" to="E2" end="27000" departLane="best" departSpeed="speedLimit" period="exp(0.057)"/>
    <flow id="f_22A" begin="21601" from="W1" to="E2" end="27000" departLane="best" departSpeed="speedLimit" period="exp(0.057)"/>
    <flow id="f_23"  begin="21601" from="W1" to="S2" end="27000" departLane="best" departSpeed="speedLimit" period="exp(0.042)"/>
    <flow id="f_24"  begin="21601" from="W1" to="N2" end="27000" departLane="best" departSpeed="speedLimit" period="exp(0.042)"/>
    
    <!-- medium pedestrian traffic -->
    <personFlow id="f_25" begin="21601" end="27000" period="exp(0.024)">
        <personTrip from="S1" to="N2"/>
    </personFlow>
    <personFlow id="f_26" begin="21601" end="27000" period="exp(0.024)">
        <personTrip from="S1" to="E2"/>
    </personFlow>
    <personFlow id="f_27" begin="21601" end="27000" period="exp(0.024)">
        <personTrip from="S1" to="W2"/>
    </personFlow>
    <personFlow id="f_28" begin="21601" end="27000" period="exp(0.024)">
        <personTrip from="E1" to="W2"/>
    </personFlow>
    <personFlow id="f_29" begin="21601" end="27000" period="exp(0.024)">
        <personTrip from="E1" to="N2"/>
    </personFlow>
    <personFlow id="f_30" begin="21601" end="27000" period="exp(0.024)">
        <personTrip from="E1" to="S2"/>
    </personFlow>
    <personFlow id="f_31" begin="21601" end="27000" period="exp(0.024)">
        <personTrip from="N1" to="S2"/>
    </personFlow>
    <personFlow id="f_32" begin="21601" end="27000" period="exp(0.024)">
        <personTrip from="N1" to="W2"/>
    </personFlow>
    <personFlow id="f_33" begin="21601" end="27000" period="exp(0.024)">
        <personTrip from="N1" to="E2"/>
    </personFlow>
    <personFlow id="f_34" begin="21601" end="27000" period="exp(0.024)">
        <personTrip from="W1" to="E2"/>
    </personFlow>
    <personFlow id="f_35" begin="21601" end="27000" period="exp(0.024)">
        <personTrip from="W1" to="S2"/>
    </personFlow>
    <personFlow id="f_36" begin="21601" end="27000" period="exp(0.024)">
        <personTrip from="W1" to="N2"/>
    </personFlow>

    <!-- very high vehicle traffic -->
    <vType id="passanger_cars3" jmDriveAfterYellowTime="2"/>
    <flow id="f_25"  begin="27001" from="S1" to="N2" end="37800" departLane="best" departSpeed="speedLimit" probability="0.079"/>
    <flow id="f_25A" begin="27001" from="S1" to="N2" end="37800" departLane="best" departSpeed="speedLimit" probability="0.079"/>
    <flow id="f_26"  begin="27001" from="S1" to="E2" end="37800" departLane="best" departSpeed="speedLimit" probability="0.059"/>
    <flow id="f_27"  begin="27001" from="S1" to="W2" end="37800" departLane="best" departSpeed="speedLimit" probability="0.059"/>
    <flow id="f_28"  begin="27001" from="E1" to="W2" end="37800" departLane="best" departSpeed="speedLimit" probability="0.079"/>
    <flow id="f_28A" begin="27001" from="E1" to="W2" end="37800" departLane="best" departSpeed="speedLimit" probability="0.079"/>
    <flow id="f_29"  begin="27001" from="E1" to="N2" end="37800" departLane="best" departSpeed="speedLimit" probability="0.059"/>
    <flow id="f_30"  begin="27001" from="E1" to="S2" end="37800" departLane="best" departSpeed="speedLimit" probability="0.059"/>
    <flow id="f_31"  begin="27001" from="N1" to="S2" end="37800" departLane="best" departSpeed="speedLimit" probability="0.079"/>
    <flow id="f_31A" begin="27001" from="N1" to="S2" end="37800" departLane="best" departSpeed="speedLimit" probability="0.079"/>
    <flow id="f_32"  begin="27001" from="N1" to="W2" end="37800" departLane="best" departSpeed="speedLimit" probability="0.059"/>
    <flow id="f_33"  begin="27001" from="N1" to="E2" end="37800" departLane="best" departSpeed="speedLimit" probability="0.059"/>
    <flow id="f_34"  begin="27001" from="W1" to="E2" end="37800" departLane="best" departSpeed="speedLimit" probability="0.079"/>
    <flow id="f_34A" begin="27001" from="W1" to="E2" end="37800" departLane="best" departSpeed="speedLimit" probability="0.079"/>
    <flow id="f_35"  begin="27001" from="W1" to="S2" end="37800" departLane="best" departSpeed="speedLimit" probability="0.059"/>
    <flow id="f_36"  begin="27001" from="W1" to="N2" end="37800" departLane="best" departSpeed="speedLimit" probability="0.059"/>

    <!-- high pedestrian traffic -->
    <personFlow id="f_37" begin="27001" end="32400" period="exp(0.035)">
        <personTrip from="S1" to="N2"/>
    </personFlow>
    <personFlow id="f_38" begin="27001" end="32400" period="exp(0.035)">
        <personTrip from="S1" to="E2"/>
    </personFlow>
    <personFlow id="f_39" begin="27001" end="32400" period="exp(0.035)">
        <personTrip from="S1" to="W2"/>
    </personFlow>
    <personFlow id="f_40" begin="27001" end="32400" period="exp(0.035)">
        <personTrip from="E1" to="W2"/>
    </personFlow>
    <personFlow id="f_41" begin="27001" end="32400" period="exp(0.035)">
        <personTrip from="E1" to="N2"/>
    </personFlow>
    <personFlow id="f_42" begin="27001" end="32400" period="exp(0.035)">
        <personTrip from="E1" to="S2"/>
    </personFlow>
    <personFlow id="f_43" begin="27001" end="32400" period="exp(0.035)">
        <personTrip from="N1" to="S2"/>
    </personFlow>
    <personFlow id="f_44" begin="27001" end="32400" period="exp(0.035)">
        <personTrip from="N1" to="W2"/>
    </personFlow>
    <personFlow id="f_45" begin="27001" end="32400" period="exp(0.035)">
        <personTrip from="N1" to="E2"/>
    </personFlow>
    <personFlow id="f_46" begin="27001" end="32400" period="exp(0.035)">
        <personTrip from="W1" to="E2"/>
    </personFlow>
    <personFlow id="f_47" begin="27001" end="32400" period="exp(0.035)">
        <personTrip from="W1" to="S2"/>
    </personFlow>
    <personFlow id="f_48" begin="27001" end="32400" period="exp(0.035)">
        <personTrip from="W1" to="N2"/>
    </personFlow>

    <!-- very high pedestrian traffic -->
    <personFlow id="f_49" begin="32401" end="37800" period="exp(0.047)">
        <personTrip from="S1" to="N2"/>
    </personFlow>
    <personFlow id="f_50" begin="32401" end="37800" period="exp(0.047)">
        <personTrip from="S1" to="E2"/>
    </personFlow>
    <personFlow id="f_51" begin="32401" end="37800" period="exp(0.047)">
        <personTrip from="S1" to="W2"/>
    </personFlow>
    <personFlow id="f_52" begin="32401" end="37800" period="exp(0.047)">
        <personTrip from="E1" to="W2"/>
    </personFlow>
    <personFlow id="f_53" begin="32401" end="37800" period="exp(0.047)">
        <personTrip from="E1" to="N2"/>
    </personFlow>
    <personFlow id="f_54" begin="32401" end="37800" period="exp(0.047)">
        <personTrip from="E1" to="S2"/>
    </personFlow>
    <personFlow id="f_55" begin="32401" end="37800" period="exp(0.047)">
        <personTrip from="N1" to="S2"/>
    </personFlow>
    <personFlow id="f_56" begin="32401" end="37800" period="exp(0.047)">
        <personTrip from="N1" to="W2"/>
    </personFlow>
    <personFlow id="f_57" begin="32401" end="37800" period="exp(0.047)">
        <personTrip from="N1" to="E2"/>
    </personFlow>
    <personFlow id="f_58" begin="32401" end="37800" period="exp(0.047)">
        <personTrip from="W1" to="E2"/>
    </personFlow>
    <personFlow id="f_59" begin="32401" end="37800" period="exp(0.047)">
        <personTrip from="W1" to="S2"/>
    </personFlow>
    <personFlow id="f_60" begin="32401" end="37800" period="exp(0.047)">
        <personTrip from="W1" to="N2"/>
    </personFlow>

    <!-- high vehicle traffic -->
    <vType id="passanger_cars4" jmDriveAfterYellowTime="2"/>
    <flow id="f_37"  begin="37801" from="S1" to="N2" end="43200" departLane="best" departSpeed="speedLimit" probability="0.065"/>
    <flow id="f_37A" begin="37801" from="S1" to="N2" end="43200" departLane="best" departSpeed="speedLimit" probability="0.065"/>
    <flow id="f_38"  begin="37801" from="S1" to="E2" end="43200" departLane="best" departSpeed="speedLimit" probability="0.049"/>
    <flow id="f_39"  begin="37801" from="S1" to="W2" end="43200" departLane="best" departSpeed="speedLimit" probability="0.049"/>
    <flow id="f_40"  begin="37801" from="E1" to="W2" end="43200" departLane="best" departSpeed="speedLimit" probability="0.065"/>
    <flow id="f_40A" begin="37801" from="E1" to="W2" end="43200" departLane="best" departSpeed="speedLimit" probability="0.065"/>
    <flow id="f_41"  begin="37801" from="E1" to="N2" end="43200" departLane="best" departSpeed="speedLimit" probability="0.049"/>
    <flow id="f_42"  begin="37801" from="E1" to="S2" end="43200" departLane="best" departSpeed="speedLimit" probability="0.049"/>
    <flow id="f_43"  begin="37801" from="N1" to="S2" end="43200" departLane="best" departSpeed="speedLimit" probability="0.065"/>
    <flow id="f_43A" begin="37801" from="N1" to="S2" end="43200" departLane="best" departSpeed="speedLimit" probability="0.065"/>
    <flow id="f_44"  begin="37801" from="N1" to="W2" end="43200" departLane="best" departSpeed="speedLimit" probability="0.049"/>
    <flow id="f_45"  begin="37801" from="N1" to="E2" end="43200" departLane="best" departSpeed="speedLimit" probability="0.049"/>
    <flow id="f_46"  begin="37801" from="W1" to="E2" end="43200" departLane="best" departSpeed="speedLimit" probability="0.065"/>
    <flow id="f_46A" begin="37801" from="W1" to="E2" end="43200" departLane="best" departSpeed="speedLimit" probability="0.065"/>
    <flow id="f_47"  begin="37801" from="W1" to="S2" end="43200" departLane="best" departSpeed="speedLimit" probability="0.049"/>
    <flow id="f_48"  begin="37801" from="W1" to="N2" end="43200" departLane="best" departSpeed="speedLimit" probability="0.049"/>
    
    <!-- medium pedestrian traffic -->
    <personFlow id="f_61" begin="37801" end="43200" period="exp(0.024)">
        <personTrip from="S1" to="N2"/>
    </personFlow>
    <personFlow id="f_62" begin="37801" end="43200" period="exp(0.024)">
        <personTrip from="S1" to="E2"/>
    </personFlow>
    <personFlow id="f_63" begin="37801" end="43200" period="exp(0.024)">
        <personTrip from="S1" to="W2"/>
    </personFlow>
    <personFlow id="f_64" begin="37801" end="43200" period="exp(0.024)">
        <personTrip from="E1" to="W2"/>
    </personFlow>
    <personFlow id="f_65" begin="37801" end="43200" period="exp(0.024)">
        <personTrip from="E1" to="N2"/>
    </personFlow>
    <personFlow id="f_66" begin="37801" end="43200" period="exp(0.024)">
        <personTrip from="E1" to="S2"/>
    </personFlow>
    <personFlow id="f_67" begin="37801" end="43200" period="exp(0.024)">
        <personTrip from="N1" to="S2"/>
    </personFlow>
    <personFlow id="f_68" begin="37801" end="43200" period="exp(0.024)">
        <personTrip from="N1" to="W2"/>
    </personFlow>
    <personFlow id="f_69" begin="37801" end="43200" period="exp(0.024)">
        <personTrip from="N1" to="E2"/>
    </personFlow>
    <personFlow id="f_70" begin="37801" end="43200" period="exp(0.024)">
        <personTrip from="W1" to="E2"/>
    </personFlow>
    <personFlow id="f_71" begin="37801" end="43200" period="exp(0.024)">
        <personTrip from="W1" to="S2"/>
    </personFlow>
    <personFlow id="f_72" begin="37801" end="43200" period="exp(0.024)">
        <personTrip from="W1" to="N2"/>
    </personFlow>
    
    <!-- medium vehicle traffic -->
    <vType id="passanger_cars5" jmDriveAfterYellowTime="2"/>
    <flow id="f_49"  begin="43201" from="S1" to="N2" end="48600" departLane="best" departSpeed="speedLimit" period="exp(0.057)"/>
    <flow id="f_49A" begin="43201" from="S1" to="N2" end="48600" departLane="best" departSpeed="speedLimit" period="exp(0.057)"/>
    <flow id="f_50"  begin="43201" from="S1" to="E2" end="48600" departLane="best" departSpeed="speedLimit" period="exp(0.042)"/>
    <flow id="f_51"  begin="43201" from="S1" to="W2" end="48600" departLane="best" departSpeed="speedLimit" period="exp(0.042)"/>
    <flow id="f_52"  begin="43201" from="E1" to="W2" end="48600" departLane="best" departSpeed="speedLimit" period="exp(0.057)"/>
    <flow id="f_52A" begin="43201" from="E1" to="W2" end="48600" departLane="best" departSpeed="speedLimit" period="exp(0.057)"/>
    <flow id="f_53"  begin="43201" from="E1" to="N2" end="48600" departLane="best" departSpeed="speedLimit" period="exp(0.042)"/>
    <flow id="f_54"  begin="43201" from="E1" to="S2" end="48600" departLane="best" departSpeed="speedLimit" period="exp(0.042)"/>
    <flow id="f_55"  begin="43201" from="N1" to="S2" end="48600" departLane="best" departSpeed="speedLimit" period="exp(0.057)"/>
    <flow id="f_55A" begin="43201" from="N1" to="S2" end="48600" departLane="best" departSpeed="speedLimit" period="exp(0.057)"/>
    <flow id="f_56"  begin="43201" from="N1" to="W2" end="48600" departLane="best" departSpeed="speedLimit" period="exp(0.042)"/>
    <flow id="f_57"  begin="43201" from="N1" to="E2" end="48600" departLane="best" departSpeed="speedLimit" period="exp(0.042)"/>
    <flow id="f_58"  begin="43201" from="W1" to="E2" end="48600" departLane="best" departSpeed="speedLimit" period="exp(0.057)"/>
    <flow id="f_58A" begin="43201" from="W1" to="E2" end="48600" departLane="best" departSpeed="speedLimit" period="exp(0.057)"/>
    <flow id="f_59"  begin="43201" from="W1" to="S2" end="48600" departLane="best" departSpeed="speedLimit" period="exp(0.042)"/>
    <flow id="f_60"  begin="43201" from="W1" to="N2" end="48600" departLane="best" departSpeed="speedLimit" period="exp(0.042)"/>
    
    <!-- high pedestrian traffic -->
    <personFlow id="f_73" begin="43201" end="48600" period="exp(0.035)">
        <personTrip from="S1" to="N2"/>
    </personFlow>
    <personFlow id="f_74" begin="43201" end="48600" period="exp(0.035)">
        <personTrip from="S1" to="E2"/>
    </personFlow>
    <personFlow id="f_75" begin="43201" end="48600" period="exp(0.035)">
        <personTrip from="S1" to="W2"/>
    </personFlow>
    <personFlow id="f_76" begin="43201" end="48600" period="exp(0.035)">
        <personTrip from="E1" to="W2"/>
    </personFlow>
    <personFlow id="f_77" begin="43201" end="48600" period="exp(0.035)">
        <personTrip from="E1" to="N2"/>
    </personFlow>
    <personFlow id="f_78" begin="43201" end="48600" period="exp(0.035)">
        <personTrip from="E1" to="S2"/>
    </personFlow>
    <personFlow id="f_79" begin="43201" end="48600" period="exp(0.035)">
        <personTrip from="N1" to="S2"/>
    </personFlow>
    <personFlow id="f_80" begin="43201" end="48600" period="exp(0.035)">
        <personTrip from="N1" to="W2"/>
    </personFlow>
    <personFlow id="f_81" begin="43201" end="48600" period="exp(0.035)">
        <personTrip from="N1" to="E2"/>
    </personFlow>
    <personFlow id="f_82" begin="43201" end="48600" period="exp(0.035)">
        <personTrip from="W1" to="E2"/>
    </personFlow>
    <personFlow id="f_83" begin="43201" end="48600" period="exp(0.035)">
        <personTrip from="W1" to="S2"/>
    </personFlow>
    <personFlow id="f_84" begin="43201" end="48600" period="exp(0.035)">
        <personTrip from="W1" to="N2"/>
    </personFlow>

    <!-- low vehicle traffic -->
    <vType id="passanger_cars6" jmDriveAfterYellowTime="2"/>
    <flow id="f_61"  begin="48601" from="S1" to="N2" end="59400" departLane="best" departSpeed="speedLimit" period="exp(0.033)"/>
    <flow id="f_61A" begin="48601" from="S1" to="N2" end="59400" departLane="best" departSpeed="speedLimit" period="exp(0.033)"/>
    <flow id="f_62"  begin="48601" from="S1" to="E2" end="59400" departLane="best" departSpeed="speedLimit" period="exp(0.024)"/>
    <flow id="f_63"  begin="48601" from="S1" to="W2" end="59400" departLane="best" departSpeed="speedLimit" period="exp(0.024)"/>
    <flow id="f_64"  begin="48601" from="E1" to="W2" end="59400" departLane="best" departSpeed="speedLimit" period="exp(0.033)"/>
    <flow id="f_64A" begin="48601" from="E1" to="W2" end="59400" departLane="best" departSpeed="speedLimit" period="exp(0.033)"/>
    <flow id="f_65"  begin="48601" from="E1" to="N2" end="59400" departLane="best" departSpeed="speedLimit" period="exp(0.024)"/>
    <flow id="f_66"  begin="48601" from="E1" to="S2" end="59400" departLane="best" departSpeed="speedLimit" period="exp(0.024)"/>
    <flow id="f_67"  begin="48601" from="N1" to="S2" end="59400" departLane="best" departSpeed="speedLimit" period="exp(0.033)"/>
    <flow id="f_67A" begin="48601" from="N1" to="S2" end="59400" departLane="best" departSpeed="speedLimit" period="exp(0.033)"/>
    <flow id="f_68"  begin="48601" from="N1" to="W2" end="59400" departLane="best" departSpeed="speedLimit" period="exp(0.024)"/>
    <flow id="f_69"  begin="48601" from="N1" to="E2" end="59400" departLane="best" departSpeed="speedLimit" period="exp(0.024)"/>
    <flow id="f_70"  begin="48601" from="W1" to="E2" end="59400" departLane="best" departSpeed="speedLimit" period="exp(0.033)"/>
    <flow id="f_70A" begin="48601" from="W1" to="E2" end="59400" departLane="best" departSpeed="speedLimit" period="exp(0.033)"/>
    <flow id="f_71"  begin="48601" from="W1" to="S2" end="59400" departLane="best" departSpeed="speedLimit" period="exp(0.024)"/>
    <flow id="f_72"  begin="48601" from="W1" to="N2" end="59400" departLane="best" departSpeed="speedLimit" period="exp(0.024)"/>

    <!-- very high pedestrian traffic -->
    <personFlow id="f_85" begin="48601" end="54000" period="exp(0.047)">
        <personTrip from="S1" to="N2"/>
    </personFlow>
    <personFlow id="f_86" begin="48601" end="54000" period="exp(0.047)">
        <personTrip from="S1" to="E2"/>
    </personFlow>
    <personFlow id="f_87" begin="48601" end="54000" period="exp(0.047)">
        <personTrip from="S1" to="W2"/>
    </personFlow>
    <personFlow id="f_88" begin="48601" end="54000" period="exp(0.047)">
        <personTrip from="E1" to="W2"/>
    </personFlow>
    <personFlow id="f_89" begin="48601" end="54000" period="exp(0.047)">
        <personTrip from="E1" to="N2"/>
    </personFlow>
    <personFlow id="f_90" begin="48601" end="54000" period="exp(0.047)">
        <personTrip from="E1" to="S2"/>
    </personFlow>
    <personFlow id="f_91" begin="48601" end="54000" period="exp(0.047)">
        <personTrip from="N1" to="S2"/>
    </personFlow>
    <personFlow id="f_92" begin="48601" end="54000" period="exp(0.047)">
        <personTrip from="N1" to="W2"/>
    </personFlow>
    <personFlow id="f_93" begin="48601" end="54000" period="exp(0.047)">
        <personTrip from="N1" to="E2"/>
    </personFlow>
    <personFlow id="f_94" begin="48601" end="54000" period="exp(0.047)">
        <personTrip from="W1" to="E2"/>
    </personFlow>
    <personFlow id="f_95" begin="48601" end="54000" period="exp(0.047)">
        <personTrip from="W1" to="S2"/>
    </personFlow>
    <personFlow id="f_96" begin="48601" end="54000" period="exp(0.047)">
        <personTrip from="W1" to="N2"/>
    </personFlow>

    <!-- high pedestrian traffic -->
    <personFlow id="f_97" begin="54001" end="59400" period="exp(0.035)">
        <personTrip from="S1" to="N2"/>
    </personFlow>
    <personFlow id="f_98" begin="54001" end="59400" period="exp(0.035)">
        <personTrip from="S1" to="E2"/>
    </personFlow>
    <personFlow id="f_99" begin="54001" end="59400" period="exp(0.035)">
        <personTrip from="S1" to="W2"/>
    </personFlow>
    <personFlow id="f_100" begin="54001" end="59400" period="exp(0.035)">
        <personTrip from="E1" to="W2"/>
    </personFlow>
    <personFlow id="f_101" begin="54001" end="59400" period="exp(0.035)">
        <personTrip from="E1" to="N2"/>
    </personFlow>
    <personFlow id="f_102" begin="54001" end="59400" period="exp(0.035)">
        <personTrip from="E1" to="S2"/>
    </personFlow>
    <personFlow id="f_103" begin="54001" end="59400" period="exp(0.035)">
        <personTrip from="N1" to="S2"/>
    </personFlow>
    <personFlow id="f_104" begin="54001" end="59400" period="exp(0.035)">
        <personTrip from="N1" to="W2"/>
    </personFlow>
    <personFlow id="f_105" begin="54001" end="59400" period="exp(0.035)">
        <personTrip from="N1" to="E2"/>
    </personFlow>
    <personFlow id="f_106" begin="54001" end="59400" period="exp(0.035)">
        <personTrip from="W1" to="E2"/>
    </personFlow>
    <personFlow id="f_107" begin="54001" end="59400" period="exp(0.035)">
        <personTrip from="W1" to="S2"/>
    </personFlow>
    <personFlow id="f_108" begin="54001" end="59400" period="exp(0.035)">
        <personTrip from="W1" to="N2"/>
    </personFlow>

    <!-- medium vehicle traffic -->
    <vType id="passanger_cars7" jmDriveAfterYellowTime="2"/>
    <flow id="f_73"  begin="59401" from="S1" to="N2" end="64800" departLane="best" departSpeed="speedLimit" period="exp(0.057)"/>
    <flow id="f_73A" begin="59401" from="S1" to="N2" end="64800" departLane="best" departSpeed="speedLimit" period="exp(0.057)"/>
    <flow id="f_74"  begin="59401" from="S1" to="E2" end="64800" departLane="best" departSpeed="speedLimit" period="exp(0.042)"/>
    <flow id="f_75"  begin="59401" from="S1" to="W2" end="64800" departLane="best" departSpeed="speedLimit" period="exp(0.042)"/>
    <flow id="f_76"  begin="59401" from="E1" to="W2" end="64800" departLane="best" departSpeed="speedLimit" period="exp(0.057)"/>
    <flow id="f_76A" begin="59401" from="E1" to="W2" end="64800" departLane="best" departSpeed="speedLimit" period="exp(0.057)"/>
    <flow id="f_77"  begin="59401" from="E1" to="N2" end="64800" departLane="best" departSpeed="speedLimit" period="exp(0.042)"/>
    <flow id="f_78"  begin="59401" from="E1" to="S2" end="64800" departLane="best" departSpeed="speedLimit" period="exp(0.042)"/>
    <flow id="f_79"  begin="59401" from="N1" to="S2" end="64800" departLane="best" departSpeed="speedLimit" period="exp(0.057)"/>
    <flow id="f_79A" begin="59401" from="N1" to="S2" end="64800" departLane="best" departSpeed="speedLimit" period="exp(0.057)"/>
    <flow id="f_80"  begin="59401" from="N1" to="W2" end="64800" departLane="best" departSpeed="speedLimit" period="exp(0.042)"/>
    <flow id="f_81"  begin="59401" from="N1" to="E2" end="64800" departLane="best" departSpeed="speedLimit" period="exp(0.042)"/>
    <flow id="f_82"  begin="59401" from="W1" to="E2" end="64800" departLane="best" departSpeed="speedLimit" period="exp(0.057)"/>
    <flow id="f_82A" begin="59401" from="W1" to="E2" end="64800" departLane="best" departSpeed="speedLimit" period="exp(0.057)"/>
    <flow id="f_83"  begin="59401" from="W1" to="S2" end="64800" departLane="best" departSpeed="speedLimit" period="exp(0.042)"/>