<?xml version="1.0" encoding="UTF-8"?>

<!-- generated on 2023-01-05 01:33:25 by Eclipse SUMO GUI Version 1.14.1
-->

<configuration xmlns:xsi="http://www.w3.org/2001/XMLSchema-instance" xsi:noNamespaceSchemaLocation="http://sumo.dlr.de/xsd/sumoConfiguration.xsd">

    <input>
        <net-file value="2_intersection.net.xml"/>
        <route-files value="demand32.rou.xml"/>
        <additional-files value="4_sensor.add.xml"/>
        <junction-taz value="true"/>
    </input>

    <time>
        <begin value="0"/>
        <end value="3600"/>
    </time>

    <processing>
        <time-to-teleport.remove value="true"/>
        <collision.mingap-factor value="0"/>
        <pedestrian.striping.reserve-oncoming.junctions value="0.34"/>
        <pedestrian.striping.reserve-oncoming value="0.1"/>
        <pedestrian.striping.dawdling value="0.05"/>
        <!-- <random value="true"/> -->
        <seed value="4112"/>
        <no-warnings value="true"/>
    </processing>

    <report>
        <!-- <verbose value="true"/> -->
        <duration-log.statistics value="true"/>
        <no-step-log value="true"/>
    </report>

    <output>
        <statistic-output value="output4112.xml"/>
    </output>

</configuration>
