<?xml version="1.0" encoding="UTF-8"?>

<!-- generated on 2022-11-28 17:30:48 by Eclipse SUMO netedit Version 1.14.1
-->

<routes xmlns:xsi="http://www.w3.org/2001/XMLSchema-instance" xsi:noNamespaceSchemaLocation="http://sumo.dlr.de/xsd/routes_file.xsd">
    <!-- Vehicles, persons and containers (sorted by depart) -->
    <!-- high vehicle traffic -->
    <vType id="passanger_cars4" jmDriveAfterYellowTime="2"/>
    <flow id="f_37"  begin="0" from="S1" to="N2" end="3600" departLane="best" departSpeed="speedLimit" probability="0.065"/>
    <flow id="f_37A" begin="0" from="S1" to="N2" end="3600" departLane="best" departSpeed="speedLimit" probability="0.065"/>
    <flow id="f_38"  begin="0" from="S1" to="E2" end="3600" departLane="best" departSpeed="speedLimit" probability="0.049"/>
    <flow id="f_39"  begin="0" from="S1" to="W2" end="3600" departLane="best" departSpeed="speedLimit" probability="0.049"/>
    <flow id="f_40"  begin="0" from="E1" to="W2" end="3600" departLane="best" departSpeed="speedLimit" probability="0.065"/>
    <flow id="f_40A" begin="0" from="E1" to="W2" end="3600" departLane="best" departSpeed="speedLimit" probability="0.065"/>
    <flow id="f_41"  begin="0" from="E1" to="N2" end="3600" departLane="best" departSpeed="speedLimit" probability="0.049"/>
    <flow id="f_42"  begin="0" from="E1" to="S2" end="3600" departLane="best" departSpeed="speedLimit" probability="0.049"/>
    <flow id="f_43"  begin="0" from="N1" to="S2" end="3600" departLane="best" departSpeed="speedLimit" probability="0.065"/>
    <flow id="f_43A" begin="0" from="N1" to="S2" end="3600" departLane="best" departSpeed="speedLimit" probability="0.065"/>
    <flow id="f_44"  begin="0" from="N1" to="W2" end="3600" departLane="best" departSpeed="speedLimit" probability="0.049"/>
    <flow id="f_45"  begin="0" from="N1" to="E2" end="3600" departLane="best" departSpeed="speedLimit" probability="0.049"/>
    <flow id="f_46"  begin="0" from="W1" to="E2" end="3600" departLane="best" departSpeed="speedLimit" probability="0.065"/>
    <flow id="f_46A" begin="0" from="W1" to="E2" end="3600" departLane="best" departSpeed="speedLimit" probability="0.065"/>
    <flow id="f_47"  begin="0" from="W1" to="S2" end="3600" departLane="best" departSpeed="speedLimit" probability="0.049"/>
    <flow id="f_48"  begin="0" from="W1" to="N2" end="3600" departLane="best" departSpeed="speedLimit" probability="0.049"/>
    
    <!-- low pedestrian traffic -->
    <personFlow id="f_1" begin="0.00" end="3600" period="exp(0.012)">
        <personTrip from="S1" to="N2"/>
    </personFlow>
    <personFlow id="f_2" begin="0.00" end="3600" period="exp(0.012)">
        <personTrip from="S1" to="E2"/>
    </personFlow>
    <personFlow id="f_3" begin="0.00" end="3600" period="exp(0.012)">
        <personTrip from="S1" to="W2"/>
    </personFlow>
    <personFlow id="f_4" begin="0.00" end="3600" period="exp(0.012)">
        <personTrip from="E1" to="W2"/>
    </personFlow>
    <personFlow id="f_5" begin="0.00" end="3600" period="exp(0.012)">
        <personTrip from="E1" to="N2"/>
    </personFlow>
    <personFlow id="f_6" begin="0.00" end="3600" period="exp(0.012)">
        <personTrip from="E1" to="S2"/>
    </personFlow>
    <personFlow id="f_7" begin="0.00" end="3600" period="exp(0.012)">
        <personTrip from="N1" to="S2"/>
    </personFlow>
    <personFlow id="f_8" begin="0.00" end="3600" period="exp(0.012)">
        <personTrip from="N1" to="W2"/>
    </personFlow>
    <personFlow id="f_9" begin="0.00" end="3600" period="exp(0.012)">
        <personTrip from="N1" to="E2"/>
    </personFlow>
    <personFlow id="f_10" begin="0.00" end="3600" period="exp(0.012)">
        <personTrip from="W1" to="E2"/>
    </personFlow>
    <personFlow id="f_11" begin="0.00" end="3600" period="exp(0.012)">
        <personTrip from="W1" to="S2"/>
    </personFlow>
    <personFlow id="f_12" begin="0.00" end="3600" period="exp(0.012)">
        <personTrip from="W1" to="N2"/>
    </personFlow>
</routes>
